<NUMBER OF ZONES> 8
<TOTAL OD FLOW> 3332.7936017057564
<END OF METADATA>

Origin 1
1	 : 	0;
4	 : 	0.0;
10	 : 	0.0;
17	 : 	0.0;
20	 : 	0.0;
21	 : 	0.0;
25	 : 	0.0;
26	 : 	0.0;


Origin 4
1	 : 	0.0;
4	 : 	0;
10	 : 	0.0;
17	 : 	0.0;
20	 : 	0.0;
21	 : 	0.0;
25	 : 	0.0;
26	 : 	0.0;


Origin 10
1	 : 	0.0;
4	 : 	0.0;
10	 : 	0;
17	 : 	0.0;
20	 : 	0.0;
21	 : 	0.0;
25	 : 	0.0;
26	 : 	0.0;


Origin 17
1	 : 	0.0;
4	 : 	0.0;
10	 : 	0.0;
17	 : 	0;
20	 : 	0.0;
21	 : 	0.0;
25	 : 	0.0;
26	 : 	0.0;


Origin 20
1	 : 	0.0;
4	 : 	0.0;
10	 : 	0.0;
17	 : 	0.0;
20	 : 	0;
21	 : 	0.0;
25	 : 	0.0;
26	 : 	0.0;


Origin 21
1	 : 	0.0;
4	 : 	0.0;
10	 : 	0.0;
17	 : 	0.0;
20	 : 	0.0;
21	 : 	0;
25	 : 	0.0;
26	 : 	0.0;


Origin 25
1	 : 	0.0;
4	 : 	0.0;
10	 : 	4.0;
17	 : 	0.0;
20	 : 	0.0;
21	 : 	0.0;
25	 : 	0;
26	 : 	0.0;


Origin 26
1	 : 	0.0;
4	 : 	0.0;
10	 : 	5.0;
17	 : 	0.0;
20	 : 	0.0;
21	 : 	0.0;
25	 : 	0.0;
26	 : 	0;

Origin 27
1	 : 	0.0;
4	 : 	0.0;
10	 : 	8.0;
17	 : 	0.0;
20	 : 	0.0;
21	 : 	0.0;
25	 : 	0.0;
26	 : 	0;


